<?xml version="1.0" encoding="UTF-8"?>

<!-- generated on 2025-06-18 08:03:28 by Eclipse SUMO netconvert Version 1.23.0
<netconvertConfiguration xmlns:xsi="http://www.w3.org/2001/XMLSchema-instance" xsi:noNamespaceSchemaLocation="http://sumo.dlr.de/xsd/netconvertConfiguration.xsd">

    <input>
        <osm-files value="data/map.osm.xml"/>
    </input>

    <output>
        <output-file value="data/map.net.xml"/>
        <output.street-names value="true"/>
        <output.original-names value="true"/>
    </output>

    <projection>
        <proj.utm value="true"/>
    </projection>

    <tls_building>
        <tls.discard-simple value="false"/>
        <tls.guess value="true"/>
        <tls.default-type value="actuated"/>
    </tls_building>

    <junctions>
        <junctions.join value="true"/>
    </junctions>

    <report>
        <no-warnings value="true"/>
    </report>

</netconvertConfiguration>
-->

<net version="1.20" junctionCornerDetail="5" limitTurnSpeed="5.50" xmlns:xsi="http://www.w3.org/2001/XMLSchema-instance" xsi:noNamespaceSchemaLocation="http://sumo.dlr.de/xsd/net_file.xsd">

    <location netOffset="-606814.58,-5231113.13" convBoundary="0.00,0.00,2305.32,1725.79" origBoundary="-1.588911,47.224602,-1.558441,47.240142" projParameter="+proj=utm +zone=30 +ellps=WGS84 +datum=WGS84 +units=m +no_defs"/>

    <type id="highway.footway" priority="1" numLanes="1" speed="2.78" allow="pedestrian" oneway="1" width="2.00"/>
    <type id="highway.path" priority="1" numLanes="1" speed="5.56" allow="pedestrian bicycle" oneway="0" width="2.00"/>
    <type id="highway.pedestrian" priority="1" numLanes="1" speed="2.78" allow="pedestrian" oneway="1" width="2.00"/>
    <type id="highway.primary" priority="12" numLanes="2" speed="27.78" disallow="tram rail_urban rail rail_electric rail_fast ship container cable_car subway aircraft wheelchair scooter drone" oneway="0"/>
    <type id="highway.residential" priority="3" numLanes="1" speed="13.89" disallow="tram rail_urban rail rail_electric rail_fast ship container cable_car subway aircraft wheelchair scooter drone" oneway="0"/>
    <type id="highway.secondary" priority="11" numLanes="1" speed="27.78" disallow="tram rail_urban rail rail_electric rail_fast ship container cable_car subway aircraft wheelchair scooter drone" oneway="0"/>
    <type id="highway.secondary_link" priority="6" numLanes="1" speed="22.22" disallow="tram rail_urban rail rail_electric rail_fast ship container cable_car subway aircraft wheelchair scooter drone" oneway="0"/>
    <type id="highway.service" priority="1" numLanes="1" speed="5.56" allow="pedestrian delivery bicycle" oneway="0"/>
    <type id="highway.tertiary" priority="10" numLanes="1" speed="22.22" disallow="tram rail_urban rail rail_electric rail_fast ship container cable_car subway aircraft wheelchair scooter drone" oneway="0"/>
    <type id="railway.tram" priority="17" numLanes="1" speed="13.89" allow="tram" oneway="1"/>

    <edge id=":1057534420_0" function="internal">
        <lane id=":1057534420_0_0" index="0" allow="bus bicycle" speed="3.65" length="4.67" shape="126.17,1284.99 126.29,1283.55 126.79,1282.81 127.68,1282.77 128.97,1283.43"/>
    </edge>
    <edge id=":10644535757_0" function="internal">
        <lane id=":10644535757_0_0" index="0" allow="pedestrian delivery bicycle" speed="3.65" length="4.67" shape="1078.25,546.59 1077.17,547.54 1076.29,547.72 1075.62,547.12 1075.16,545.76"/>
    </edge>
    <edge id=":10644535758_0" function="internal">
        <lane id=":10644535758_0_0" index="0" allow="pedestrian delivery bicycle" speed="5.01" length="5.04" shape="1092.88,504.12 1091.51,503.91 1090.42,504.20 1089.60,504.98 1089.05,506.25"/>
    </edge>
    <edge id=":10644535758_1" function="internal">
        <lane id=":10644535758_1_0" index="0" disallow="tram rail_urban rail rail_electric rail_fast ship container cable_car subway aircraft wheelchair scooter drone" speed="13.89" length="9.40" shape="1092.88,504.12 1083.88,501.41"/>
    </edge>
    <edge id=":10644535758_2" function="internal">
        <lane id=":10644535758_2_0" index="0" disallow="tram rail_urban rail rail_electric rail_fast ship container cable_car subway aircraft wheelchair scooter drone" speed="13.89" length="9.40" shape="1084.80,498.35 1093.80,501.05"/>
    </edge>
    <edge id=":10644535758_3" function="internal">
        <lane id=":10644535758_3_0" index="0" allow="pedestrian delivery bicycle" speed="6.94" length="3.21" shape="1084.80,498.35 1087.28,499.51 1087.59,499.86"/>
    </edge>
    <edge id=":10644535758_7" function="internal">
        <lane id=":10644535758_7_0" index="0" allow="pedestrian delivery bicycle" speed="6.94" length="6.96" shape="1087.59,499.86 1088.81,501.21 1089.40,503.46 1089.05,506.25"/>
    </edge>
    <edge id=":10644535758_4" function="internal">
        <lane id=":10644535758_4_0" index="0" allow="pedestrian delivery bicycle" speed="5.14" length="5.12" shape="1085.96,505.42 1086.15,504.00 1085.86,502.85 1085.10,501.99 1083.88,501.41"/>
    </edge>
    <edge id=":10644535758_5" function="internal">
        <lane id=":10644535758_5_0" index="0" allow="pedestrian delivery bicycle" speed="6.84" length="10.31" shape="1085.96,505.42 1087.08,502.82 1088.76,501.22 1091.00,500.63 1093.80,501.05"/>
    </edge>
    <edge id=":10644535758_6" function="internal">
        <lane id=":10644535758_6_0" index="0" allow="pedestrian delivery bicycle" speed="3.65" length="4.67" shape="1085.96,505.42 1087.05,504.47 1087.92,504.29 1088.59,504.89 1089.05,506.25"/>
    </edge>
    <edge id=":10644535759_0" function="internal">
        <lane id=":10644535759_0_0" index="0" allow="pedestrian delivery bicycle" speed="3.65" length="4.67" shape="1677.73,849.59 1679.02,848.94 1679.91,849.00 1680.40,849.74 1680.50,851.18"/>
    </edge>
    <edge id=":10644535761_0" function="internal">
        <lane id=":10644535761_0_0" index="0" disallow="tram rail_urban rail rail_electric rail_fast ship container cable_car subway aircraft wheelchair scooter drone" speed="13.89" length="8.90" shape="1653.50,898.76 1646.86,892.83"/>
    </edge>
    <edge id=":10644535761_1" function="internal">
        <lane id=":10644535761_1_0" index="0" allow="pedestrian delivery bicycle" speed="7.03" length="2.79" shape="1653.50,898.76 1652.02,896.90 1651.92,896.50"/>
    </edge>
    <edge id=":10644535761_7" function="internal">
        <lane id=":10644535761_7_0" index="0" allow="pedestrian delivery bicycle" speed="7.03" length="7.00" shape="1651.92,896.50 1651.50,894.81 1651.95,892.50 1653.35,889.95"/>
    </edge>
    <edge id=":10644535761_2" function="internal">
        <lane id=":10644535761_2_0" index="0" allow="pedestrian delivery bicycle" speed="5.26" length="5.05" shape="1655.96,891.80 1655.15,893.21 1654.82,894.43 1654.98,895.49 1655.63,896.37"/>
    </edge>
    <edge id=":10644535761_3" function="internal">
        <lane id=":10644535761_3_0" index="0" allow="pedestrian delivery bicycle" speed="6.78" length="10.73" shape="1655.96,891.80 1653.90,893.97 1651.70,894.86 1649.35,894.49 1646.86,892.83"/>
    </edge>
    <edge id=":10644535761_4" function="internal">
        <lane id=":10644535761_4_0" index="0" allow="pedestrian delivery bicycle" speed="3.65" length="4.67" shape="1655.96,891.80 1654.61,892.32 1653.73,892.18 1653.31,891.39 1653.35,889.95"/>
    </edge>
    <edge id=":10644535761_5" function="internal">
        <lane id=":10644535761_5_0" index="0" allow="pedestrian delivery bicycle" speed="4.93" length="5.14" shape="1648.99,890.45 1650.18,891.24 1651.31,891.42 1652.36,890.99 1653.35,889.95"/>
    </edge>
    <edge id=":10644535761_6" function="internal">
        <lane id=":10644535761_6_0" index="0" disallow="tram rail_urban rail rail_electric rail_fast ship container cable_car subway aircraft wheelchair scooter drone" speed="13.89" length="8.90" shape="1648.99,890.45 1655.63,896.37"/>
    </edge>
    <edge id=":10759491933_0" function="internal">
        <lane id=":10759491933_0_0" index="0" disallow="tram rail_urban rail rail_electric rail_fast ship container cable_car subway aircraft wheelchair scooter drone" speed="6.20" length="5.26" shape="1545.60,804.09 1544.83,803.22 1543.74,802.02 1542.61,801.01 1541.70,800.72"/>
    </edge>
    <edge id=":10759491933_1" function="internal">
        <lane id=":10759491933_1_0" index="0" disallow="tram rail_urban rail rail_electric rail_fast ship container cable_car subway aircraft wheelchair scooter drone" speed="13.89" length="3.57" shape="1545.33,798.65 1544.33,799.40 1543.62,799.89 1542.86,800.28 1541.70,800.72"/>
        <lane id=":10759491933_1_1" index="1" disallow="tram rail_urban rail rail_electric rail_fast ship container cable_car subway aircraft wheelchair scooter drone" speed="9.17" length="3.57" shape="1543.15,796.24 1542.52,796.83 1542.04,797.17 1541.48,797.41 1540.66,797.69"/>
    </edge>
    <edge id=":10759491934_0" function="internal">
        <lane id=":10759491934_0_0" index="0" disallow="tram rail_urban rail rail_electric rail_fast ship container cable_car subway aircraft wheelchair scooter drone" speed="8.28" length="5.15" shape="1541.51,800.78 1540.49,801.53 1540.37,802.58 1540.45,803.87 1540.02,805.35"/>
    </edge>
    <edge id=":10759491934_1" function="internal">
        <lane id=":10759491934_1_0" index="0" disallow="tram rail_urban rail rail_electric rail_fast ship container cable_car subway aircraft wheelchair scooter drone" speed="8.04" length="3.73" shape="1541.51,800.78 1540.63,801.12 1540.00,801.35 1539.37,801.42 1538.46,801.29"/>
        <lane id=":10759491934_1_1" index="1" disallow="tram rail_urban rail rail_electric rail_fast ship container cable_car subway aircraft wheelchair scooter drone" speed="9.29" length="3.73" shape="1540.47,797.76 1539.27,798.07 1538.40,798.07 1537.52,797.85 1536.28,797.52"/>
    </edge>
    <edge id=":10759491935_0" function="internal">
        <lane id=":10759491935_0_0" index="0" disallow="tram rail_urban rail rail_electric rail_fast ship container cable_car subway aircraft wheelchair scooter drone" speed="5.77" length="5.36" shape="1529.57,781.10 1531.13,782.41 1532.41,783.24 1533.41,783.60 1534.14,783.48"/>
    </edge>
    <edge id=":10759491935_1" function="internal">
        <lane id=":10759491935_1_0" index="0" disallow="tram rail_urban rail rail_electric rail_fast ship container cable_car subway aircraft wheelchair scooter drone" speed="13.89" length="2.47" shape="1531.46,785.56 1532.23,784.90 1532.75,784.44 1533.29,784.02 1534.14,783.48"/>
        <lane id=":10759491935_1_1" index="1" disallow="tram rail_urban rail rail_electric rail_fast ship container cable_car subway aircraft wheelchair scooter drone" speed="9.27" length="2.47" shape="1535.17,787.62 1535.80,786.21"/>
    </edge>
    <edge id=":11366613880_0" function="internal">
        <lane id=":11366613880_0_0" index="0" allow="pedestrian delivery bicycle" speed="5.04" length="5.00" shape="1206.57,621.93 1205.93,623.14 1205.83,624.26 1206.26,625.30 1207.24,626.26"/>
    </edge>
    <edge id=":11366613880_1" function="internal">
        <lane id=":11366613880_1_0" index="0" disallow="tram rail_urban rail rail_electric rail_fast ship container cable_car subway aircraft wheelchair scooter drone" speed="8.33" length="6.16" shape="1206.57,621.93 1202.87,626.85"/>
    </edge>
    <edge id=":11366613883_0" function="internal">
        <lane id=":11366613883_0_0" index="0" allow="pedestrian delivery bicycle" speed="5.27" length="4.93" shape="1201.28,634.08 1200.18,633.50 1199.07,633.40 1197.97,633.78 1196.85,634.64"/>
    </edge>
    <edge id=":11366613883_1" function="internal">
        <lane id=":11366613883_1_0" index="0" disallow="tram rail_urban rail rail_electric rail_fast ship container cable_car subway aircraft wheelchair scooter drone" speed="8.33" length="6.20" shape="1200.64,629.74 1199.56,631.24 1198.86,632.29 1198.11,633.30 1196.85,634.64"/>
    </edge>
    <edge id=":11366613909_0" function="internal">
        <lane id=":11366613909_0_0" index="0" allow="pedestrian delivery bicycle" speed="4.99" length="5.06" shape="1188.33,619.50 1189.53,620.21 1190.66,620.35 1191.70,619.92 1192.68,618.92"/>
    </edge>
    <edge id=":11366613909_1" function="internal">
        <lane id=":11366613909_1_0" index="0" allow="pedestrian delivery bicycle" speed="3.65" length="4.67" shape="1188.33,619.50 1188.76,620.87 1188.57,621.75 1187.76,622.12 1186.32,621.99"/>
    </edge>
    <edge id=":11366613909_2" function="internal">
        <lane id=":11366613909_2_0" index="0" allow="pedestrian delivery bicycle" speed="5.21" length="5.20" shape="1187.15,626.53 1187.76,625.33 1187.83,624.17 1187.35,623.06 1186.32,621.99"/>
    </edge>
    <edge id=":11366613909_3" function="internal">
        <lane id=":11366613909_3_0" index="0" disallow="tram rail_urban rail rail_electric rail_fast ship container cable_car subway aircraft wheelchair scooter drone" speed="8.33" length="9.41" shape="1187.15,626.53 1192.68,618.92"/>
    </edge>
    <edge id=":11366613912_0" function="internal">
        <lane id=":11366613912_0_0" index="0" allow="pedestrian delivery bicycle" speed="5.01" length="5.03" shape="1118.60,587.37 1117.23,587.20 1116.14,587.51 1115.33,588.31 1114.81,589.59"/>
    </edge>
    <edge id=":11366613912_1" function="internal">
        <lane id=":11366613912_1_0" index="0" allow="pedestrian delivery bicycle" speed="6.93" length="10.17" shape="1118.60,587.37 1116.02,586.26 1114.38,584.61 1113.70,582.42 1113.97,579.69"/>
    </edge>
    <edge id=":11366613912_2" function="internal">
        <lane id=":11366613912_2_0" index="0" allow="pedestrian delivery bicycle" speed="3.65" length="4.67" shape="1118.60,587.37 1117.66,586.28 1117.48,585.40 1118.08,584.74 1119.45,584.29"/>
    </edge>
    <edge id=":11366613912_3" function="internal">
        <lane id=":11366613912_3_0" index="0" allow="pedestrian delivery bicycle" speed="5.13" length="5.11" shape="1117.07,580.46 1116.95,581.81 1117.30,582.90 1118.13,583.73 1119.45,584.29"/>
    </edge>
    <edge id=":11366613912_4" function="internal">
        <lane id=":11366613912_4_0" index="0" disallow="tram rail_urban rail rail_electric rail_fast ship container cable_car subway aircraft wheelchair scooter drone" speed="8.33" length="9.40" shape="1117.07,580.46 1114.81,589.59"/>
    </edge>
    <edge id=":11366613912_5" function="internal">
        <lane id=":11366613912_5_0" index="0" disallow="tram rail_urban rail rail_electric rail_fast ship container cable_car subway aircraft wheelchair scooter drone" speed="8.33" length="9.40" shape="1111.71,588.82 1113.97,579.69"/>
    </edge>
    <edge id=":11366613912_6" function="internal">
        <lane id=":11366613912_6_0" index="0" allow="pedestrian delivery bicycle" speed="6.84" length="3.29" shape="1111.71,588.82 1112.77,586.20 1113.10,585.87"/>
    </edge>
    <edge id=":11366613912_7" function="internal">
        <lane id=":11366613912_7_0" index="0" allow="pedestrian delivery bicycle" speed="6.84" length="7.01" shape="1113.10,585.87 1114.42,584.57 1116.64,583.93 1119.45,584.29"/>
    </edge>
    <edge id=":11375339776_0" function="internal">
        <lane id=":11375339776_0_0" index="0" disallow="tram rail_urban rail rail_electric rail_fast ship container cable_car subway aircraft wheelchair scooter drone" speed="5.75" length="6.05" shape="1939.86,1079.23 1940.43,1080.04 1941.99,1080.92 1943.78,1081.69 1945.01,1082.18"/>
    </edge>
    <edge id=":11375339776_1" function="internal">
        <lane id=":11375339776_1_0" index="0" disallow="tram rail_urban rail rail_electric rail_fast ship container cable_car subway aircraft wheelchair scooter drone" speed="13.23" length="6.33" shape="1939.86,1079.23 1939.24,1081.21 1938.58,1082.48 1937.64,1083.60 1936.19,1085.12"/>
        <lane id=":11375339776_1_1" index="1" disallow="tram rail_urban rail rail_electric rail_fast ship container cable_car subway aircraft wheelchair scooter drone" speed="7.89" length="6.33" shape="1936.78,1078.40 1936.24,1079.99 1935.57,1081.29 1934.78,1082.29 1933.85,1083.00"/>
    </edge>
    <edge id=":11660201757_0" function="internal">
        <lane id=":11660201757_0_0" index="0" allow="pedestrian delivery bicycle" speed="3.65" length="4.67" shape="363.67,718.35 365.10,718.21 365.92,718.57 366.12,719.45 365.70,720.83"/>
    </edge>
    <edge id=":11660201759_0" function="internal">
        <lane id=":11660201759_0_0" index="0" allow="pedestrian delivery bicycle" speed="5.03" length="5.01" shape="312.16,702.09 311.14,701.17 310.07,700.80 308.95,700.98 307.79,701.71"/>
    </edge>
    <edge id=":11660201759_1" function="internal">
        <lane id=":11660201759_1_0" index="0" allow="pedestrian delivery bicycle" speed="6.88" length="10.16" shape="312.16,702.09 310.69,699.72 310.33,697.44 311.07,695.27 312.91,693.20"/>
    </edge>
    <edge id=":11660201759_2" function="internal">
        <lane id=":11660201759_2_0" index="0" allow="pedestrian delivery bicycle" speed="3.65" length="4.67" shape="312.16,702.09 312.00,700.66 312.36,699.84 313.23,699.64 314.62,700.05"/>
    </edge>
    <edge id=":11660201759_3" function="internal">
        <lane id=":11660201759_3_0" index="0" allow="pedestrian delivery bicycle" speed="5.06" length="5.03" shape="314.98,695.65 314.07,696.67 313.71,697.74 313.89,698.87 314.62,700.05"/>
    </edge>
    <edge id=":11660201759_4" function="internal">
        <lane id=":11660201759_4_0" index="0" disallow="tram rail_urban rail rail_electric rail_fast ship container cable_car subway aircraft wheelchair scooter drone" speed="8.33" length="9.40" shape="314.98,695.65 307.79,701.71"/>
    </edge>
    <edge id=":11660201759_5" function="internal">
        <lane id=":11660201759_5_0" index="0" disallow="tram rail_urban rail rail_electric rail_fast ship container cable_car subway aircraft wheelchair scooter drone" speed="8.33" length="9.40" shape="305.73,699.26 312.91,693.20"/>
    </edge>
    <edge id=":11660201759_6" function="internal">
        <lane id=":11660201759_6_0" index="0" allow="pedestrian delivery bicycle" speed="6.86" length="3.27" shape="305.73,699.26 308.10,697.78 308.57,697.70"/>
    </edge>
    <edge id=":11660201759_7" function="internal">
        <lane id=":11660201759_7_0" index="0" allow="pedestrian delivery bicycle" speed="6.86" length="6.92" shape="308.57,697.70 310.37,697.42 312.54,698.17 314.62,700.05"/>
    </edge>
    <edge id=":11660201760_0" function="internal">
        <lane id=":11660201760_0_0" index="0" allow="pedestrian delivery bicycle" speed="3.65" length="4.67" shape="375.69,1326.05 374.25,1326.04 373.48,1325.58 373.38,1324.69 373.95,1323.37"/>
    </edge>
    <edge id=":11660201761_0" function="internal">
        <lane id=":11660201761_0_0" index="0" allow="pedestrian delivery bicycle" speed="5.01" length="5.03" shape="431.54,1293.46 430.65,1292.40 429.64,1291.89 428.51,1291.92 427.26,1292.50"/>
    </edge>
    <edge id=":11660201761_1" function="internal">
        <lane id=":11660201761_1_0" index="0" disallow="tram rail_urban rail rail_electric rail_fast ship container cable_car subway aircraft wheelchair scooter drone" speed="8.33" length="9.40" shape="431.54,1293.46 426.60,1285.46"/>
    </edge>
    <edge id=":11660201761_2" function="internal">
        <lane id=":11660201761_2_0" index="0" disallow="tram rail_urban rail rail_electric rail_fast ship container cable_car subway aircraft wheelchair scooter drone" speed="8.33" length="9.40" shape="429.32,1283.78 434.26,1291.78"/>
    </edge>
    <edge id=":11660201761_3" function="internal">
        <lane id=":11660201761_3_0" index="0" allow="pedestrian delivery bicycle" speed="6.92" length="3.22" shape="429.32,1283.78 430.41,1286.30 430.42,1286.77"/>
    </edge>
    <edge id=":11660201761_7" function="internal">
        <lane id=":11660201761_7_0" index="0" allow="pedestrian delivery bicycle" speed="6.92" length="6.95" shape="430.42,1286.77 430.43,1288.60 429.38,1290.66 427.26,1292.50"/>
    </edge>
    <edge id=":11660201761_4" function="internal">
        <lane id=":11660201761_4_0" index="0" allow="pedestrian delivery bicycle" speed="5.12" length="5.10" shape="425.51,1289.82 426.59,1288.89 427.13,1287.85 427.13,1286.71 426.60,1285.46"/>
    </edge>
    <edge id=":11660201761_5" function="internal">
        <lane id=":11660201761_5_0" index="0" allow="pedestrian delivery bicycle" speed="6.84" length="10.28" shape="425.51,1289.82 428.07,1288.63 430.39,1288.56 432.45,1289.61 434.26,1291.78"/>
    </edge>
    <edge id=":11660201761_6" function="internal">
        <lane id=":11660201761_6_0" index="0" allow="pedestrian delivery bicycle" speed="3.65" length="4.67" shape="425.51,1289.82 426.95,1289.84 427.72,1290.29 427.83,1291.18 427.26,1292.50"/>
    </edge>
    <edge id=":11724495372_0" function="internal">
        <lane id=":11724495372_0_0" index="0" disallow="tram rail_urban rail rail_electric rail_fast ship container cable_car subway aircraft wheelchair scooter drone" speed="8.33" length="5.00" shape="335.74,1156.93 333.52,1152.45"/>
    </edge>
    <edge id=":11724495372_1" function="internal">
        <lane id=":11724495372_1_0" index="0" disallow="tram rail_urban rail rail_electric rail_fast ship container cable_car subway aircraft wheelchair scooter drone" speed="8.33" length="5.00" shape="336.38,1151.03 338.61,1155.51"/>
    </edge>
    <edge id=":11794021207_0" function="internal">
        <lane id=":11794021207_0_0" index="0" disallow="tram rail_urban rail rail_electric rail_fast ship container cable_car subway aircraft wheelchair scooter drone" speed="8.33" length="5.00" width="3.10" shape="462.93,1150.15 467.15,1147.45"/>
    </edge>
    <edge id=":11794021208_0" function="internal">
        <lane id=":11794021208_0_0" index="0" allow="pedestrian delivery bicycle" speed="3.65" length="4.67" shape="448.32,1121.81 448.26,1123.25 447.79,1124.01 446.89,1124.09 445.59,1123.48"/>
    </edge>
    <edge id=":120137512_0" function="internal">
        <lane id=":120137512_0_0" index="0" allow="pedestrian delivery bicycle" speed="5.09" length="4.97" shape="1493.96,1392.97 1492.72,1392.40 1491.59,1392.35 1490.57,1392.82 1489.65,1393.81"/>
    </edge>
    <edge id=":120137512_1" function="internal">
        <lane id=":120137512_1_0" index="0" allow="pedestrian delivery bicycle" speed="6.89" length="10.01" shape="1493.96,1392.97 1491.89,1391.18 1490.87,1389.15 1490.89,1386.88 1491.95,1384.36"/>
    </edge>
    <edge id=":120137512_2" function="internal">
        <lane id=":120137512_2_0" index="0" allow="pedestrian delivery bicycle" speed="3.65" length="4.67" shape="1493.96,1392.97 1493.38,1391.64 1493.48,1390.75 1494.25,1390.30 1495.69,1390.28"/>
    </edge>
    <edge id=":120137512_3" function="internal">
        <lane id=":120137512_3_0" index="0" allow="pedestrian delivery bicycle" speed="5.08" length="4.96" shape="1494.69,1386.01 1494.17,1387.26 1494.16,1388.38 1494.66,1389.39 1495.69,1390.28"/>
    </edge>
    <edge id=":120137512_4" function="internal">
        <lane id=":120137512_4_0" index="0" disallow="tram rail_urban rail rail_electric rail_fast ship container cable_car subway aircraft wheelchair scooter drone" speed="13.89" length="9.29" shape="1494.69,1386.01 1489.65,1393.81"/>
    </edge>
    <edge id=":120137512_5" function="internal">
        <lane id=":120137512_5_0" index="0" disallow="tram rail_urban rail rail_electric rail_fast ship container cable_car subway aircraft wheelchair scooter drone" speed="13.89" length="9.08" shape="1487.02,1391.98 1491.95,1384.36"/>
    </edge>
    <edge id=":120137512_6" function="internal">
        <lane id=":120137512_6_0" index="0" allow="pedestrian delivery bicycle" speed="6.90" length="3.05" shape="1487.02,1391.98 1488.87,1389.99 1489.17,1389.85"/>
    </edge>
    <edge id=":120137512_7" function="internal">
        <lane id=":120137512_7_0" index="0" allow="pedestrian delivery bicycle" speed="6.90" length="6.95" shape="1489.17,1389.85 1490.94,1389.04 1493.21,1389.13 1495.69,1390.28"/>
    </edge>
    <edge id=":12042337121_0" function="internal">
        <lane id=":12042337121_0_0" index="0" disallow="tram rail_urban rail rail_electric rail_fast ship container cable_car subway aircraft wheelchair scooter drone" speed="8.33" length="8.96" shape="592.53,1446.38 590.85,1449.01 589.76,1451.25 589.26,1453.09 589.36,1454.54"/>
    </edge>
    <edge id=":12042337121_1" function="internal">
        <lane id=":12042337121_1_0" index="0" disallow="tram rail_urban rail rail_electric rail_fast ship container cable_car subway aircraft wheelchair scooter drone" speed="6.63" length="4.93" shape="583.19,1450.93 585.43,1451.02 587.21,1451.65 587.81,1452.19"/>
    </edge>
    <edge id=":12042337121_2" function="internal">
        <lane id=":12042337121_2_0" index="0" disallow="tram rail_urban rail rail_electric rail_fast ship container cable_car subway aircraft wheelchair scooter drone" speed="6.63" length="2.85" shape="587.81,1452.19 588.51,1452.83 589.36,1454.54"/>
    </edge>
    <edge id=":12164433741_0" function="internal">
        <lane id=":12164433741_0_0" index="0" disallow="tram rail_urban rail rail_electric rail_fast ship container cable_car subway aircraft wheelchair scooter drone" speed="13.89" length="0.29" shape="840.73,1405.90 840.62,1406.16"/>
    </edge>
    <edge id=":12164433741_1" function="internal">
        <lane id=":12164433741_1_0" index="0" disallow="tram rail_urban rail rail_electric rail_fast ship container cable_car subway aircraft wheelchair scooter drone" speed="13.89" length="0.17" shape="837.70,1404.86 837.77,1404.70"/>
    </edge>
    <edge id=":12196718429_0" function="internal">
        <lane id=":12196718429_0_0" index="0" allow="pedestrian delivery bicycle" speed="5.56" length="9.40" shape="1439.38,935.83 1434.07,943.58"/>
    </edge>
    <edge id=":12196718429_1" function="internal">
        <lane id=":12196718429_1_0" index="0" allow="pedestrian delivery bicycle" speed="5.56" length="10.16" shape="1439.38,935.83 1437.50,937.87 1435.42,938.82 1433.12,938.69 1430.61,937.47"/>
    </edge>
    <edge id=":12196718429_2" function="internal">
        <lane id=":12196718429_2_0" index="0" allow="pedestrian delivery bicycle" speed="3.65" length="4.67" shape="1439.38,935.83 1438.04,936.37 1437.16,936.24 1436.72,935.46 1436.74,934.02"/>
    </edge>
    <edge id=":12196718429_3" function="internal">
        <lane id=":12196718429_3_0" index="0" allow="pedestrian delivery bicycle" speed="5.07" length="5.03" shape="1432.39,934.81 1433.64,935.42 1434.78,935.49 1435.82,935.02 1436.74,934.02"/>
    </edge>
    <edge id=":12196718429_4" function="internal">
        <lane id=":12196718429_4_0" index="0" allow="pedestrian delivery bicycle" speed="5.56" length="10.20" shape="1432.39,934.81 1434.47,936.69 1435.44,938.78 1435.31,941.07 1434.07,943.58"/>
    </edge>
    <edge id=":12196718429_5" function="internal">
        <lane id=":12196718429_5_0" index="0" allow="pedestrian delivery bicycle" speed="3.65" length="4.67" shape="1432.39,934.81 1432.94,936.15 1432.83,937.03 1432.05,937.47 1430.61,937.47"/>
    </edge>
    <edge id=":12196718429_6" function="internal">
        <lane id=":12196718429_6_0" index="0" allow="pedestrian delivery bicycle" speed="5.03" length="5.01" shape="1431.43,941.77 1432.04,940.54 1432.10,939.41 1431.63,938.39 1430.61,937.47"/>
    </edge>
    <edge id=":12196718429_7" function="internal">
        <lane id=":12196718429_7_0" index="0" allow="pedestrian delivery bicycle" speed="5.56" length="9.40" shape="1431.43,941.77 1436.74,934.02"/>
    </edge>
    <edge id=":12196718429_8" function="internal">
        <lane id=":12196718429_8_0" index="0" allow="pedestrian delivery bicycle" speed="3.65" length="4.67" shape="1431.43,941.77 1432.77,941.24 1433.65,941.36 1434.09,942.14 1434.07,943.58"/>
    </edge>
    <edge id=":12196718430_0" function="internal">
        <lane id=":12196718430_0_0" index="0" allow="pedestrian delivery bicycle" speed="3.65" length="4.67" shape="1421.02,931.01 1420.48,929.68 1420.59,928.79 1421.37,928.35 1422.81,928.36"/>
    </edge>
    <edge id=":12196718431_0" function="internal">
        <lane id=":12196718431_0_0" index="0" allow="pedestrian delivery bicycle" speed="3.65" length="4.67" shape="1429.82,918.68 1429.33,917.33 1429.48,916.45 1430.28,916.04 1431.72,916.11"/>
    </edge>
    <edge id=":12196718432_0" function="internal">
        <lane id=":12196718432_0_0" index="0" allow="pedestrian delivery bicycle" speed="5.56" length="9.40" shape="1447.64,923.78 1442.32,931.54"/>
    </edge>
    <edge id=":12196718432_1" function="internal">
        <lane id=":12196718432_1_0" index="0" allow="pedestrian delivery bicycle" speed="5.56" length="10.33" shape="1447.64,923.78 1445.72,925.88 1443.60,926.82 1441.29,926.63 1438.78,925.28"/>
    </edge>
    <edge id=":12196718432_2" function="internal">
        <lane id=":12196718432_2_0" index="0" allow="pedestrian delivery bicycle" speed="3.65" length="4.67" shape="1447.64,923.78 1446.30,924.32 1445.42,924.20 1444.98,923.42 1445.00,921.97"/>
    </edge>
    <edge id=":12196718432_3" function="internal">
        <lane id=":12196718432_3_0" index="0" allow="pedestrian delivery bicycle" speed="5.00" length="5.04" shape="1440.68,922.71 1441.90,923.36 1443.03,923.46 1444.06,923.00 1445.00,921.97"/>
    </edge>
    <edge id=":12196718432_4" function="internal">
        <lane id=":12196718432_4_0" index="0" allow="pedestrian delivery bicycle" speed="5.56" length="10.17" shape="1440.68,922.71 1442.70,924.67 1443.65,926.80 1443.52,929.09 1442.32,931.54"/>
    </edge>
    <edge id=":12196718432_5" function="internal">
        <lane id=":12196718432_5_0" index="0" allow="pedestrian delivery bicycle" speed="3.65" length="4.67" shape="1440.68,922.71 1441.17,924.06 1441.02,924.94 1440.22,925.35 1438.78,925.28"/>
    </edge>
    <edge id=":12196718432_6" function="internal">