<?xml version="1.0" encoding="UTF-8"?>

<!-- generated on 2025-06-18 08:03:29 by Eclipse SUMO duarouter Version 1.23.0
<duarouterConfiguration xmlns:xsi="http://www.w3.org/2001/XMLSchema-instance" xsi:noNamespaceSchemaLocation="http://sumo.dlr.de/xsd/duarouterConfiguration.xsd">

    <input>
        <net-file value="data/map.net.xml"/>
        <route-files value="data/map.trip.xml"/>
    </input>

    <output>
        <output-file value="data/map.rou.xml"/>
    </output>

    <report>
        <no-warnings value="true"/>
        <ignore-errors value="true"/>
    </report>

</duarouterConfiguration>
-->

<routes xmlns:xsi="http://www.w3.org/2001/XMLSchema-instance" xsi:noNamespaceSchemaLocation="http://sumo.dlr.de/xsd/routes_file.xsd">
    <vType id="veh__private" vClass="private"/>
    <vehicle id="veh_2" type="veh__private" depart="2.00" departPos="0.62">
        <route edges="332331890#2 143621941#4 143621941#5 143621686#0 143621686#1 162257585#0 162257585#1 162257585#2 -162257652#0 -162257653#0 -26575486#1 -26776711#1 -26776711#0 -162257664#3 -162257664#2 -162257664#1 -162257664#0 -162257668#2"/>
    </vehicle>
    <vehicle id="veh_3" type="veh__private" depart="3.00" departPos="59.63">
        <route edges="-135110730#0 -727709225#1 727709225#1 135110730#0 135110730#1 135110730#2 192071902#0 192071902#1 192071902#4 279622172 331712730#0 331712730#1 331712730#2 143621773#1 27589821#0 27589821#1 27589821#2 27589821#3 27589821#4 1184425658 1184425653 -27161445#1 -27161445#0"/>
    </vehicle>
    <vehicle id="veh_4" type="veh__private" depart="4.00" departPos="17.70">
        <route edges="-1334228915 1334228915 1334228916 332268479#0 332268479#1 332268479#2 332268479#3 332268479#4 153061687#0 153061687#1 153061687#2 153061687#3 143621773#5 143621773#6 143621773#7 143621773#8 143621773#9 143621773#0 -331712730#2 -331712730#1 -331712730#0 -279622172 -192071902#4 -192071902#1 -192071902#0 -26594409#5 -26594409#4 -26594409#1 -26594409#0 1294963285 636253128#0 636253128#1 -636756292#1 -636756292#0 332331941#0 332331941#1 135110741#0 135110741#1 26243757 -26128498#1 -26594412#1"/>
    </vehicle>
    <vehicle id="veh_5" type="veh__private" depart="5.00" departPos="130.23">
        <route edges="162257583#1 162257583#2 162257587#0 162257587#1 143621941#9 143621941#10 143621941#11 143621941#12 143621941#13 143621941#0 143621941#1 143621941#2 143621941#3 143621941#4 143621941#5 143621686#0 143621686#1 162257585#0 162257585#1 162257585#2 162257585#3 162257585#4 162257580#0 162257580#1 162257580#2 143621773#0 143621773#1 27589821#0 27589821#1 27589821#2 27589821#3 27589821#4 1184425658 1184425653 -27161445#1"/>
    </vehicle>
    <vehicle id="veh_6" type="veh__private" depart="6.00" departPos="0.16">
        <route edges="331661427 600326835 600326834 600326833 331661428 28046429 -162257554#2 -112138108#3 -112138108#2 -112138108#1 26575473 -26594412#0 26128497 192006748 192012780 192006532#0 192006532#1 192006531 191593236#1 191593236#2 191593236#3 727709224#0 727709224#1 -47374725#5 -47374725#4 1090800264#1 -1090800264#1"/>
    </vehicle>
    <vehicle id="veh_7" type="veh__private" depart="7.00" departPos="8.52">
        <route edges="26575489 26575491 162257652#0 162257585#3 162257585#4 162257580#0 162257580#1 162257580#2 143621773#0 -331712730#2 -331712730#1 -331712730#0 -279622172 -192071902#4 -192071902#1 -192071902#0 -26594409#5 -26594409#4 -48539685#0"/>
    </vehicle>
    <vehicle id="veh_8" type="veh__private" depart="8.00" departPos="0.02">
        <route edges="491793318#1 -673448182#1 -673448182#0 -26243756#0 162257552#1 162257552#2 143621941#2 143621941#3 143621941#4 143621941#5 143621686#0 143621686#1 162257585#0 162257585#1 162257585#2 -162257652#0 -162257653#0 -26575486#1 -26776711#1 -26776711#0 -162257664#3 -162257664#2 -162257664#1 -162257664#0 -162257668#2 -26592449#3 -26592449#2 -26592449#1 -26592450#2 -26592450#1 -808755606#3 -808755606#2 48515493#0 48515493#1 48515493#2 48515493#3 48515493#4 -48515493#4 -48515493#3 -48515493#2 -48515493#1"/>
    </vehicle>
    <vehicle id="veh_9" type="veh__private" depart="9.00" departPos="0.72">
        <route edges="-168214469#3 -168214469#2 -332268438#3 -332268438#2 -332268438#1 -332268438#0 26776711#0 26776711#1 26776711#2 26776711#3 26776711#4 26776711#5 26776711#6 -26592447#2 -26592447#1 -26592447#0 26421389#1 332268402#3 -332268335 332268390#0 332268390#2 -332126811#4 -332126811#2 -332126811#1 -332126811#0 -162257556 332126809 161769044#0 161769044#1 600326242 600326241#0 600326241#1 332126819 -162257561 -717372880 -143633855 -332126815#1 -332126815#0 332126821#0 332126821#1 1184236760#1 1184236760#2 1184236760#3 1184236760#4 1184236760#5 1184236760#6 1184236760#7 1184236760#8 332126820#0 332126820#1 332126815#0"/>
    </vehicle>
    <vehicle id="veh_10" type="veh__private" depart="10.00" departPos="0.11">
        <route edges="331661406#0 331661406#1 332126823#0 332126823#1 1184236760#6 1184236760#7 1184236760#8 332126820#0 332126820#1 332126815#0 332126815#1 143633855 717372880 162257561 332126822 600326237#0 600326237#1 600326230 600326224#0 600326224#1 143722682 162257556 332126811#0 332126811#1 332126811#2 332126811#4 332126807#0 332126807#1 332268335 332268400#0 -26421389#1 26592447#0 26592447#1 26592447#2 -26776711#6 27159799"/>
    </vehicle>
    <vehicle id="veh_11" type="veh__private" depart="11.00" departPos="0.11">
        <route edges="636230637#1 -636253128#1 -636253128#0 -1294963285 26594409#0 26594409#1 26594409#4 26594409#5 192071902#0 192071902#1 192071902#4 279622172 331712730#0 331712730#1 331712730#2 143621773#1 27589821#0 27589821#1 27589821#2 27589821#3 27589821#4 1184425658 1184425653 1184425654#0 1184425654#1 600326594#0 600326594#1 600326594#2 1184425655 -729108206#2 -729108206#1"/>
    </vehicle>
    <vehicle id="veh_12" type="veh__private" depart="12.00" departPos="66.47">
        <route edges="331685535 143384048 600326830#0 600326830#1 143384065 -331685508 331685531#0 331685531#1 27589822#0 27589822#1 -27254909 -27176761 27254907#0 27254907#1 27254907#2 27254907#3 26128494#3 26128494#4 -232109220 -232109318#1 -232109318#0 -232109317 232109317"/>
    </vehicle>
    <vehicle id="veh_13" type="veh__private" depart="13.00" departPos="1.58">
        <route edges="162257687#1 808755605 808755606#0 808755606#2 808755606#3 26592450#1 26592450#2 26592449#1 26592449#2 26592449#3 162257668#2 162257664#0 162257664#1 162257664#2 162257664#3 -310952026#1 -310952026#0 1334228915 1334228916 332268479#0 332268479#1 332268479#2 332268479#3 332268479#4 153061687#0 153061687#1 153061687#2 153061687#3 143621773#5 143621773#6 143621773#7 143621773#8 143621773#9 143621773#0 -331712730#2 -331712730#1 -331712730#0 -279622172 -192071902#4 -192071902#1 -192071902#0 -26594409#5 -26594409#4 26594411#1 26594410"/>
    </vehicle>
    <vehicle id="veh_14" type="veh__private" depart="14.00" departPos="16.22">
        <route edges="-27159804#1 -27159804#0 -168214469#3 -168214469#2 -332268438#3 -332268438#2"/>
    </vehicle>
    <vehicle id="veh_15" type="veh__private" depart="15.00" departPos="16.53">
        <route edges="-27161446#3 -27161446#2 27162535#0 -192071902#1 -192071902#0 -26594409#5 -26594409#4 -26594409#1 -26594409#0 1294963285 636253128#0 636253128#1 -636756292#1 -636756292#0 332331941#0 332331941#1 135110741#0 332331933#1 162257594 26243762#1 162257702 332126854 1184236760#8 1184236760#0 1184236760#1 1184236760#2 1184236760#3 1184236760#4 143635662#0 143635662#1 -331661406#1 -331661406#0 162257562#0 162257562#1 28046435 331661427 28046438 143358532 162257639 230238810#0 230238810#1 230238810#2 111311815#0 26092571 162257597 185120472 143359605 185120489#0 185120489#1 -185120489#1 -185120489#0"/>
    </vehicle>
    <vehicle id="veh_17" type="veh__private" depart="17.00" departPos="52.77">
        <route edges="-26612713#3 26612713#3 1382812834 195394335 -673448019 491793316#0 491793316#1 -332331900#0 -517505515#0 332331885 636230637#0 636230637#1 -636756292#1 -636756292#0 332331941#0 332331941#1 135110741#0 332331933#1 162257594 26243762#1 162257702 332126854 1184236760#8 1184236760#0 1184236760#1 1184236760#2 1184236760#3 1184236760#4 143635662#0 143635662#1 -331661406#1 -331661406#0 162257562#0 162257562#1 28046435 331661427 28046438 143358532 162257639 230238810#0 230238810#1 230238810#2 111311815#0 26092571 162257597 185120472 -185120480 -162257645 -331685540#1 -331685540#0"/>
    </vehicle>
    <vehicle id="veh_18" type="veh__private" depart="18.00" departPos="13.16">
        <route edges="26128498#2 -162257594 -332331933#1 -332331933#0 553086466#1 553086466#2 -143621151#1 26128497 755392169 195394325"/>
    </vehicle>
    <vehicle id="veh_19" type="veh__private" depart="19.00" departPos="21.38">
        <route edges="26612713#3 1382812834 195394335 -673448019 491793316#0 491793316#1 332331900#1 332331900#2 517505514 332331890#1 332331890#2 143621941#4 143621941#5 143621941#6 143621941#7 143621941#8 143621941#9 1126776168#0 1126776168#1 1126776168#2 -1026781509#1 -1026781509#0 -930332858#2 -930332858#1 -930332858#0 -930332859#2 -930332859#0 332126807#0 332126807#1 332268335 332268400#0 -26421389#1"/>
    </vehicle>
    <vehicle id="veh_20" type="veh__private" depart="20.00" departPos="67.87">
        <route edges="755392169 279662389 332331942 -553086466#1 332331933#0 135110741#1 26243757 26128498#2"/>
    </vehicle>
    <vehicle id="veh_21" type="veh__private" depart="21.00" departPos="3.43">
        <route edges="26575479#0 26575479#1 26575479#2 -673448019 491793316#0 491793316#1 332331900#1 332331900#2 517505514 332331890#1 332331890#2 143621941#4 143621941#5 143621941#6 143621941#7 143621941#8 143621941#9 143621941#10 143621941#11 143630044#0 143630044#1 143630044#2 143630044#3 162257549#0 162257549#1 162257549#2 162257549#3 600326224#1 143722682 162257556 332126811#0"/>
    </vehicle>
    <vehicle id="veh_22" type="veh__private" depart="22.00" departPos="0.06">
        <route edges="-27161445#1 -27161445#0 27161445#0 27161445#1 1184425654#0 1184425654#1 600326594#0 600326594#1 600326594#2 1184425655 1184425656 1184425657#0 1184425657#1 1184425657#2 1184425657#3 1184425658 26612711#0 26612711#1 143628878#0 143628878#1 143628878#2 162257625#0 162257625#1 162257625#2 162257625#3 162257620 192071868#0 192071868#1 -26594409#5 -26594409#4 -26594409#1 -26594409#0 1294963285 636253128#0 636253128#1 -636756292#1 -636756292#0 332331941#0 332331941#1 135110741#0 135110741#1 -135110741#1"/>
    </vehicle>
    <vehicle id="veh_24" type="veh__private" depart="24.00" departPos="54.09">
        <route edges="332268415#0 332268415#1 -26575482#4 -26575482#3 -26575482#2 -26575482#1 -26575482#0 162257587#0 162257587#1 143621941#9 143621941#10 143621941#11 143621941#12 143621941#13 143621941#0 143621941#1 143621941#2 143621941#3 143621941#4 26575479#0 26575479#1 26575479#2 26575479#3 54563494#0 54563494#1 192071906#0 -47374725#5 -47374725#4 -47374725#3 -47374725#1"/>
    </vehicle>
    <vehicle id="veh_25" type="veh__private" depart="25.00" departPos="0.09">
        <route edges="-729108206#2 -729108206#1 1232315491#0 1232315491#1 143621906#2 143621906#4 153061687#0 153061687#1 153061687#2 153061687#3 143621773#5 143621773#6 143621773#7 143621773#8 143621773#9 143621773#0 -331712730#2 -331712730#1 -331712730#0 -279622172 -192071902#4 -192071902#1 -192071902#0 -135110730#2 -135110730#1 -135110730#0 -727709225#1 -47374725#5 -47374725#4 -47374725#3 47374725#3"/>
    </vehicle>
    <vehicle id="veh_26" type="veh__private" depart="26.00" departPos="31.44">
        <route edges="-27289212 -27176762 -26128494#3 -27254907#3"/>
    </vehicle>
    <vehicle id="veh_27" type="veh__private" depart="27.00" departPos="5.44">
        <route edges="-27289211 -332126811#2 -332126811#1 -332126811#0 -162257556 332126809 161769044#0 161769044#1 600326242 600326241#0 600326241#1 581322871#0 581322871#1 143636852#0 143636852#1 135182631#0 135182631#1 135182631#2 135182631#3 187302333#2"/>
    </vehicle>
    <vehicle id="veh_28" type="veh__private" depart="28.00" departPos="0.36">
        <route edges="-808755606#0 -808755605 -162257687#1 -162257687#0 162257687#0 162257687#1 808755605 808755606#0 808755606#2 808755606#3 26592450#1 26592450#2 26592449#1 26592449#2 26592449#3 162257668#2 162257664#0 162257664#1 162257664#2 162257664#3 -310952026#1 -310952026#0 1334228915 1334228916 332268479#0 332268479#1 332268479#2 332268479#3 332268479#4 153061687#0 153061687#1 153061687#2 153061687#3 143621773#5 143621773#6 143621773#7 143621773#8 143621773#9 143621773#0 143621773#1 27589821#0 27589821#1 27589821#2 27589821#3 27589821#4 1184425658 1184425653 -27161445#1 -27161445#0"/>
    </vehicle>
    <vehicle id="veh_29" type="veh__private" depart="29.00" departPos="1.49">
        <route edges="143638008#3 -143638008#3 -143638008#2 -143638008#1 -143638008#0 1184236760#4 1184236760#5 1184236760#6 1184236760#7 1184236760#8 332126820#0 332126820#1 332126815#0 332126815#1 143633855 717372880 162257561 332126822 600326237#0 600326237#1 600326230 600326224#0 600326224#1 143722682 162257556 332126811#0 332126811#1 332126811#2 332126811#4 332126807#0 332126807#1 332268335 332268400#0 -26421389#1 26592447#0 26592447#1 26592447#2 -26776711#6 -26776711#5 -26776711#4 -26776711#3 -26776711#2 -26776711#1 -26776711#0 -162257664#3 -162257664#2 -162257664#1 -162257664#0 -162257668#2 -26592449#3 -26592449#2 -26592449#1 -26592450#2 -26592450#1 -808755606#3 -808755606#2 -808755606#0 -808755605 -162257687#1"/>
    </vehicle>
    <vehicle id="veh_30" type="veh__private" depart="30.00" departPos="41.30">
        <route edges="-191593236#2 191593236#2 191593236#3 727709224#0 727709224#1 727709225#1 135110730#0 135110730#1 135110730#2 -26594409#5 -26594409#4 -26594409#1 -26594409#0 1294963285 636253128#0 636253128#1 -636756292#1 -636756292#0 332331941#0 332331941#1 135110741#0 332331933#1 162257594 26243762#1 162257702 332126854 1184236760#8 1184236760#0 1184236760#1 1184236760#2 1184236760#3 1184236760#4 143635662#0 143635662#1 -331661406#1 -331661406#0 162257562#0 162257562#1 28046435 331661427 600326835 600326834 28046442 -162257559#2 -162257559#0 26092568#0 26092568#1 26092568#2"/>
    </vehicle>
    <vehicle id="veh_32" type="veh__private" depart="32.00" departPos="12.90">
        <route edges="930332858#1 930332858#2 1026781509#0 1026781509#1 1095411544#0 1095411544#1 143621941#11 143621941#12 143621941#13 143621941#0 143621941#1 143621941#2 143621941#3 143621941#4 143621941#5 143621686#0 143621686#1 162257585#0 162257585#1 162257585#2 162257585#3 162257585#4 162257580#0 162257580#1"/>
    </vehicle>
    <vehicle id="veh_33" type="veh__private" depart="33.00" departPos="39.92">
        <route edges="332126847#0 332126847#1 332126847#2 -332126847#2 -332126847#1 -332126847#0 332223447 1184236760#3 1184236760#4 143635662#0 143635662#1 -331661406#1 -331661406#0 162257562#0 162257562#1 28046435 517505518 28046429 -162257554#2 -112138108#3 -112138108#2 -112138108#1 -112138108#0"/>
    </vehicle>
    <vehicle id="veh_34" type="veh__private" depart="34.00" departPos="23.92">
        <route edges="26575473 -135110741#2 -135110741#1 -135110741#0 -26243756#1 -26243756#0 162257552#1 162257552#2 143621941#2 143621941#3 143621941#4 143621941#5 143621686#0 143621686#1 162257585#0 162257585#1 162257585#2"/>
    </vehicle>
    <vehicle id="veh_36" type="veh__private" depart="36.00" departPos="69.22">
        <route edges="135182631#3 -143638008#5 -143638008#4 -143638008#3 -143638008#2 -143638008#1 -143638008#0 1184236760#4 1184236760#5 1184236760#6 1184236760#7 1184236760#8 332126820#0 332126820#1 332126815#0 332126815#1 -26243761#1 -26243761#0 -332331941#1 -332331941#0 636756292#0 636756292#1 -636230637#1 -636230637#0 -332331885 517505515#0 -491793317#2 491793318#0"/>
    </vehicle>
    <vehicle id="veh_37" type="veh__private" depart="37.00" departPos="1.08">
        <route edges="-27289211 -332126811#2 -332126811#1 -332126811#0 -162257556 332126809 161769044#0 161769044#1 600326242 600326241#0 600326241#1 581322871#0 581322871#1 143636852#0 143636852#1 135182631#0 135182631#1 143637335 143638008#4 143639809#0"/>
    </vehicle>
    <vehicle id="veh_38" type="veh__private" depart="38.00" departPos="7.62">
        <route edges="47374725#3 47374725#4 47374725#5 727709225#1 135110730#0 135110730#1 135110730#2 -26594409#5 -26594409#4 -48539685#0 1382812834 195394335 -673448019 491793316#0 491793316#1 332331900#1 332331900#2 517505514 332331890#1 332331890#2 143621941#4 143621941#5 143621941#6 143621941#7 143621941#8 143621941#9 1126776168#0 1126776168#1 1126776168#2 -1026781509#1 -26442428#1 -26592447#0 26421389#1 332268402#3 -332268335 332268390#0 332268390#2"/>
    </vehicle>
    <vehicle id="veh_41" type="veh__private" depart="41.00" departPos="1.61">
        <route edges="162257549#2 162257549#3 600326224#1 600326243 161769044#0 161769044#1 600326242 600326241#0 600326241#1 600326239 600326237#0 143630041#0 143630041#1 143630041#2 162257552#0 162257552#1 162257552#2 143621941#2 143621941#3 143621941#4 143621941#5 143621941#6 143621941#7 143621941#8 143621941#9 1126776168#0 1126776168#1 1126776168#2 -1026781509#1 -1026781509#0"/>
    </vehicle>
    <vehicle id="veh_42" type="veh__private" depart="42.00" departPos="148.29">
        <route edges="-1225755910 -27289211 332126811#4 332126807#0 332126807#1 332268335 332268400#0 -26421389#1 26592447#0 26592447#1 26592447#2 -26776711#6 -26776711#5 -26776711#4 -26776711#3 -26776711#2 -26776711#1 -26776711#0 332268438#0 332268438#1 332268438#2 332268438#3 -168214469#1 48515008#0 48515008#1 48515008#3 48515008#4"/>
    </vehicle>
    <vehicle id="veh_43" type="veh__private" depart="43.00" departPos="0.71">
        <route edges="331685539#0 331685539#1 -331815416 -331685522 331685538 -143383428#1 -143383428#0 143383435#1 143383435#2 -332331940#2 -332331940#1"/>
    </vehicle>
    <vehicle id="veh_44" type="veh__private" depart="44.00" departPos="2.21">
        <route edges="332268438#0 -332268438#0 26776711#0 26776711#1 26776711#2 26776711#3 26776711#4 26776711#5 26776711#6 -26592447#2 -26592447#1 -26592447#0 26421389#1 332268402#3 -332268335 332268390#0 332268390#2 -332126811#4 -332126811#2 -332126811#1 -332126811#0 -162257556 332126809 161769044#0 161769044#1 600326242 600326241#0 600326241#1 332126819 -162257561 -717372880 -143633855 -332126815#1 -332126815#0 332126821#0 332126821#1 1184236760#1 1184236760#2 1184236760#3 1184236760#4 143635662#0 143635662#1 -331661406#1 -331661406#0 162257562#0 162257562#1 28046435 331661427 28046438 143358532 162257639 230238810#0 230238810#1 230238810#2 111311815#0 26092571 162257597 185120472 -185120480 -162257645 -331685540#1 -331685540#0 331685534 -48603626#1 -48603626#0 48603626#0 48603626#1"/>
    </vehicle>
    <vehicle id="veh_45" type="veh__private" depart="45.00" departPos="83.89">
        <route edges="143621906#2 143621906#4 153061687#0 153061687#1 153061687#2 153061687#3 143621773#5 143621773#6 27589820#0 27589820#1 27589820#2 162257583#0 162257583#1 162257583#2 162257587#0 162257587#1 143621941#9 143621941#10 143621941#11 143630044#0 143630044#1 143630044#2 143630044#3 162257549#0 162257549#1 162257549#2 162257549#3 600326224#1 600326243 161769044#0 161769044#1 600326242 600326241#0 600326241#1 332126819 -162257561 -717372880 -143633855 -332126815#1 -332126815#0 332126821#0 332126821#1 1184236760#1 1184236760#2 1184236760#3 1184236760#4 143635662#0 143635662#1 -331661406#1 -331661406#0 162257562#0 162257562#1 28046435 517505518 331661426 517505517 28046433 -162257562#1"/>
    </vehicle>
    <vehicle id="veh_47" type="veh__private" depart="47.00" departPos="86.11">
        <route edges="162257585#3 162257585#4 162257580#0 162257580#1 162257580#2 143621773#0 143621773#1 143621773#2 143621773#3 143621773#4 143621773#5 143621773#6 27589820#0 27589820#1 27589820#2 162257583#0 162257583#1 162257583#2 162257587#0 162257587#1 143621941#9 143621941#10 143621941#11 143630044#0 143630044#1 143630044#2 143630044#3 162257549#0 162257549#1 162257549#2 162257549#3 600326224#1 600326243 161769044#0 161769044#1 600326242 600326241#0 600326241#1 332126819 -162257561 -717372880 -143633855 -332126815#1 -332126815#0 332126821#0 332126821#1 1184236760#1 1184236760#2 1184236760#3 1184236760#4 143635662#0 143635662#1 -331661406#1 -331661406#0 162257562#0 162257562#1 28046435 331661427 600326835 600326834 28046442 -162257559#2 -162257559#0 -331685536"/>
    </vehicle>
    <vehicle id="veh_50" type="veh__private" depart="50.00" departPos="55.85">
        <route edges="930332858#0 930332858#1 930332858#2 1026781509#0 1026781509#1 1095411544#0 1095411544#1 143621941#11 143621941#12 143621941#13 143621941#0 143621941#1 143621941#2 314699007#0 314699007#1 -517505514 491793317#0 491793317#1 491793318#0 491793318#1 -673448182#1 -673448182#0 -26243756#0 26243756#0"/>
    </vehicle>
    <vehicle id="veh_51" type="veh__private" depart="51.00" departPos="12.52">
        <route edges="143639809#1 46614729 143639118#2 -332126847#4 -332126847#2 -332126847#1 -332126847#0 332223447 1184236760#3 1184236760#4 143635662#0 143635662#1 -331661406#1 -331661406#0 162257562#0 162257562#1 28046435 517505518 28046429 -162257554#2 -112138108#3 -112138108#2 -112138108#1 -112138108#0 -232109217 -158778600 -232109215 -232109214 -232109218"/>
    </vehicle>
    <vehicle id="veh_52" type="veh__private" depart="52.00" departPos="5.87">
        <route edges="-47374725#3 47374725#3 47374725#4 47374725#5 -727709224#1 -727709224#0 -191593236#3 191593236#3"/>
    </vehicle>
    <vehicle id="veh_53" type="veh__private" depart="53.00" departPos="122.86">
        <route edges="-27159796 -26592447#1 26442428#1 1026781509#1 1095411544#0 1095411544#1 143621941#11 143621941#12 143621941#13 143621941#0 143621941#1 143621941#2 143621941#3 143621941#4 26575479#0 26575479#1 26575479#2 26575479#3 26594409#0 26594409#1 26594409#4 26594409#5 -192071868#1 -192071868#0 -162257620"/>
    </vehicle>
    <vehicle id="veh_54" type="veh__private" depart="54.00" departPos="0.17">
        <route edges="-27161445#1 -27161445#0 27161445#0 27161445#1 1184425654#0 1184425654#1 600326594#0 600326594#1 600326594#2 1184425655 1184425656 143621906#0 143621906#1 143621906#2 143621906#4 153061687#0 153061687#1 153061687#2 153061687#3 143621773#5 143621773#6 27589820#0 27589820#1 27589820#2 162257583#0 162257583#1 162257583#2 162257587#0 162257587#1 143621941#9 143621941#10 143621941#11 143630044#0 143630044#1 143630044#2 143630044#3 162257549#0 162257549#1 162257549#2 162257549#3 600326224#1 600326243 161769044#0 161769044#1 600326242 600326241#0 600326241#1 332126819 -162257561 -717372880 -143633855 -332126815#1 -332126815#0 332126821#0 332126821#1 1184236760#1 1184236760#2 1184236760#3 143638008#0 -108336783#1 46614730"/>
    </vehicle>
    <vehicle id="veh_55" type="veh__private" depart="55.00" departPos="73.83">
        <route edges="-162257594 -332331933#1 135110741#1 135110741#2 -26575473 -112138108#0 -232109217 -158778600 -232109215 -232109214 -232109218 -26128494#4 -26128494#3 -27254907#3 -27254907#2 -27254907#1 -27254907#0 27176761 27254909 27176756 -27176756"/>
    </vehicle>
    <vehicle id="veh_56" type="veh__private" depart="56.00" departPos="88.22">
        <route edges="-26776711#4 -26776711#3 26776711#3 26776711#4 26776711#5 26776711#6 -26592447#2 -26592447#1 -26592447#0 26421389#1 332268402#3 -332268335 332268390#0 332268390#2 -332126811#4 -332126811#2 -332126811#1 -332126811#0 -162257556 332126809 161769044#0 161769044#1 600326242 600326241#0 600326241#1 332126819 -162257561 -717372880 -143633855 -332126815#1 -332126815#0 332126821#0 332126821#1 1184236760#1 1184236760#2 1184236760#3 1184236760#4 143635662#0 143635662#1 -331661406#1 -331661406#0 162257562#0 162257562#1 28046435 331661427 28046438 143358532 162257639 230238810#0 230238810#1 230238810#2 111311815#0 26092571 -26092568#3 -26092568#2"/>
    </vehicle>
    <vehicle id="veh_57" type="veh__private" depart="57.00" departPos="46.69">
        <route edges="162257668#0 162257668#1 162257668#2 162257664#0 162257664#1 162257664#2 162257664#3 -310952026#1 -310952026#0 1334228915 1334228916 332268479#0 332268479#1 332268479#2 332268479#3 332268479#4 153061687#0 153061687#1 153061687#2 153061687#3 143621773#5 143621773#6 143621773#7 143621773#8 143621773#9 143621773#0 143621773#1 27589821#0 27589821#1 27589821#2 27589821#3 27589821#4 1184425658 1184425653 1184425654#0 1184425654#1 600326594#0 600326594#1 600326594#2 1184425655 1184425656 143621906#0 143621906#1 143621906#2 143621906#4"/>
    </vehicle>
    <vehicle id="veh_58" type="veh__private" depart="58.00" departPos="0.02">
        <route edges="331661406#0 331661406#1 332126823#0 332126823#1 1184236760#6 1184236760#7 1184236760#8 332126820#0 332126820#1 332126815#0 332126815#1 143633855 717372880 162257561 332126822 600326237#0 600326237#1 600326230 600326224#0 600326224#1 143722682 162257556 332126811#0 332126811#1 332126811#2 332126811#4 332126807#0 332126807#1 332268335 332268400#0 -26421389#1 26592447#0 26592447#1 26592447#2 -26776711#6 -26776711#5 -26776711#4 -26776711#3 -26776711#2 -26776711#1 -26776711#0 -162257664#3 -162257664#2 -162257664#1 -162257664#0 -162257668#2 -26592449#3 -26592449#2 -26592449#1 -26592450#2 -26592450#1"/>
    </vehicle>
    <vehicle id="veh_60" type="veh__private" depart="60.00" departPos="55.45">
        <route edges="26612713#3 48539685#0 26594411#1 26594410 26575476"/>
    </vehicle>
    <vehicle id="veh_61" type="veh__private" depart="61.00" departPos="19.38">
        <route edges="-168215076#0 143621906#4 153061687#0 153061687#1 153061687#2 153061687#3 143621773#5 143621773#6 27589820#0 27589820#1 27589820#2 162257583#0 162257583#1 162257583#2 162257587#0 162257587#1 143621941#9 1126776168#0 1126776168#1 1126776168#2 1095411544#0 1095411544#1"/>
    </vehicle>
    <vehicle id="veh_62" type="veh__private" depart="62.00" departPos="7.06">
        <route edges="332126847#1 332126847#2 24849354 717372880 162257561 332126822 600326237#0 600326237#1 600326230 600326224#0 600326224#1 143722682 162257556 332126811#0 332126811#1 332126811#2 27289211 1225755910 1225755911 -1225755911 -1225755910 -27289211"/>
    </vehicle>
    <vehicle id="veh_63" type="veh__private" depart="63.00" departPos="20.43">
        <route edges="135110741#1 -135110741#1 -135110741#0 -332331941#1 -332331941#0 636756292#0 636756292#1 -636253128#1 -636253128#0 -1294963285 54563494#0 54563494#1 192071906#0 -47374725#5 -47374725#4 1090800264#1 -1314248997 -1314248998 -1090800265#1 1090800263 1314248994"/>
    </vehicle>
    <vehicle id="veh_65" type="veh__private" depart="65.00" departPos="1.88">
        <route edges="332126847#1 332126847#2 -332126847#2 -332126847#1 -332126847#0 332223447 1184236760#3 1184236760#4 143635662#0 143635662#1 -331661406#1 -331661406#0 162257562#0 162257562#1 28046435 331661427 28046438 143358532 162257639"/>
    </vehicle>
    <vehicle id="veh_66" type="veh__private" depart="66.00" departPos="16.94">
        <route edges="930332859#2 930332858#0 930332858#1 930332858#2 1026781509#0 1026781509#1 1095411544#0 1095411544#1 143621941#11 143621941#12 143621941#13 143621941#0 143621941#1 143621941#2 143621941#3 143621941#4 26575479#0 26575479#1 26575479#2 26575479#3 26594409#0 26594409#1 26594409#4 26594409#5 192071902#0 192071902#1 192071902#4 279622172 331712730#0 331712730#1"/>
    </vehicle>
    <vehicle id="veh_67" type="veh__private" depart="67.00" departPos="0.32">
        <route edges="48515008#4 48515008#5 162257664#0 162257664#1 162257664#2 162257664#3 26776711#0 26776711#1 26776711#2 26776711#3 26776711#4 26776711#5 26776711#6 -26592447#2 -26592447#1 -26592447#0 26421389#1 332268402#3 -332268335 332268390#0 332268390#2 -332126811#4 -332126811#2 -332126811#1 -332126811#0 -162257556 332126809 161769044#0 161769044#1 600326242 600326241#0 600326241#1 332126819 -162257561 -717372880 -143633855 -332126815#1 332126815#1"/>
    </vehicle>
    <vehicle id="veh_68" type="veh__private" depart="68.00" departPos="0.05">
        <route edges="143621906#1 143621906#2 143621906#4 153061687#0 153061687#1 153061687#2 153061687#3 143621773#5 143621773#6 27589820#0 27589820#1 27589820#2 162257583#0 162257583#1 162257583#2 26575482#0 26575482#1 26575482#2 26575482#3 26575482#4 -26776711#6"/>
    </vehicle>
    <vehicle id="veh_69" type="veh__private" depart="69.00" departPos="30.37">
        <route edges="-143639118#2 143639118#2 -332126847#4 24849354 717372880 162257561 332126822 600326237#0 143630041#0 143630041#1 143630041#2 162257552#0 162257552#1 162257552#2 143621941#2 143621941#3 143621941#4 143621941#5 143621686#0 143621686#1 162257585#0 162257585#1 162257585#2 162257585#3 162257585#4 162257580#0 162257580#1 162257580#2 143621773#0 143621773#1 27589821#0 27589821#1 27589821#2 27589821#3 27589821#4 1184425658 1184425653 1184425654#0 1184425654#1 600326594#0 600326594#1 600326594#2 1184425655 -729108206#2"/>
    </vehicle>
    <vehicle id="veh_73" type="veh__private" depart="73.00" departPos="8.35">
        <route edges="-332126815#1 332126815#1 -26243761#1 -26243761#0 -332331941#1 -332331941#0 636756292#0 636756292#1 -636230637#1 -636230637#0 -332331885 517505515#0 626000949#0"/>
    </vehicle>
    <vehicle id="veh_74" type="veh__private" depart="74.00" departPos="0.01">
        <route edges="162257580#2 143621773#0 143621773#1 143621773#2 143621773#3 143621773#4 143621773#5 27162533#0 27162533#1"/>
    </vehicle>
    <vehicle id="veh_75" type="veh__private" depart="75.00" departPos="42.07">